[TITLE]
;;Project Title/Notes
 ÏîÄ¿

[OPTIONS]
;;Option             Value
FLOW_UNITS           LPS
INFILTRATION         HORTON
FLOW_ROUTING         DYNWAVE
LINK_OFFSETS         ELEVATION
MIN_SLOPE            0
ALLOW_PONDING        NO
SKIP_STEADY_STATE    NO

IGNORE_SNOWMELT      YES
IGNORE_GROUNDWATER   YES
START_DATE           06/24/2011
START_TIME           00:00:00
REPORT_START_DATE    06/24/2011
REPORT_START_TIME    00:00:00
END_DATE             06/24/2011
END_TIME             03:00:00
SWEEP_START          01/01
SWEEP_END            12/31
DRY_DAYS             0.000
REPORT_STEP          00:05:00
WET_STEP             00:02:00
DRY_STEP             01:00:00
ROUTING_STEP         0:00:30 
RULE_STEP            00:00:00

INERTIAL_DAMPING     PARTIAL
NORMAL_FLOW_LIMITED  BOTH
FORCE_MAIN_EQUATION  D-W
VARIABLE_STEP        0.75
LENGTHENING_STEP     0
MIN_SURFAREA         1.600
MAX_TRIALS           8
HEAD_TOLERANCE       0.0050
SYS_FLOW_TOL         5
LAT_FLOW_TOL         5
MINIMUM_STEP         0.5000
THREADS              1

[EVAPORATION]
;;Data Source    Parameters
;;-------------- ----------------
CONSTANT         0
DRY_ONLY         NO

[RAINGAGES]
;;Name           Format    Interval SCF      Source    
;;-------------- --------- ------ ------ ----------
1                INTENSITY 0:05     1.000    TIMESERIES chaohu20110624  

[SUBCATCHMENTS]
;;Name           Rain Gage        Outlet           Area     %Imperv  Width    %Slope   CurbLen  SnowPack        
;;-------------- ---------------- ---------------- -------- -------- -------- -------- -------- ----------------
79               1                o16              1.17     10       150      1        0                        
80               1                o12              0.77     10       110      1        0                        
81               1                o9               1.3      10       150      2        0                        
82               1                o5               2.16     10       500      1        0                        
83               1                o1               0.54     10       100      2        0                        
84               1                266              2.84     70       400      1        0                        
85               1                o21              0.24     10       50       5        0                        
86               1                89               1.58     10       180      0.5      0                        
87               1                90               2.32     10       300      2        0                        
88               1                91               5.13     10       500      2        0                        
89               1                290              1.06     70       200      1        0                        
90               1                289              0.94     90       200      1        0                        
91               1                291              1.41     90       200      2        0                        
92               1                o24              0.66     10       200      2        0                        
93               1                o29              0.38     10       200      2        0                        
94               1                o33              1.22     10       300      2        0                        
95               1                275              4.18     60       500      2        0                        
96               1                o38              2.47     20       200      1.5      0                        
97               1                292              1.06     60       200      0.5      0                        
98               1                272              0.77     70       500      2        0                        
99               1                302              2.39     30       300      1        0                        
100              1                302              2.32     25       300      1        0                        
101              1                104              3.39     60       300      6        0                        
102              1                101              1.66     40       300      6        0                        
103              1                102              4.31     10       500      10       0                        
104              1                311              1.24     90       300      1.5      0                        
105              1                316              0.97     90       500      1        0                        
106              1                o49              1.22     20       300      2        0                        
107              1                101              3.2      50       500      4        0                        
108              1                357              3.7      50       500      5        0                        
109              1                136              1.45     10       500      10       0                        
110              1                135              2.52     50       600      10       0                        
111              1                107              3.3      10       300      10       0                        
112              1                134              1        60       400      10       0                        
113              1                114              0.87     70       500      8        0                        
114              1                117              1.03     70       500      8        0                        
115              1                108              2.38     60       200      8        0                        
116              1                117              0.78     80       400      8        0                        
117              1                363              3.97     80       1000     8        0                        
118              1                357              2.23     40       150      1        0                        
119              1                335              4.46     70       300      5        0                        
120              1                o53              1.42     20       200      2        0                        
121              1                o56              2.62     20       200      2        0                        
122              1                357              1.7      20       300      1        0                        
123              1                349              1.14     70       250      2        0                        
124              1                341              1.55     70       300      1        0                        
125              1                363              2.16     90       500      5        0                        
126              1                365              1.08     70       500      6        0                        
127              1                m6               2.16     30       300      0.5      0                        
128              1                m8               0.76     40       100      0.5      0                        
129              1                367              2.26     30       200      1        0                        
130              1                376              2.78     30       200      0.5      0                        
131              1                d14              6.58     50       4000     8        0                        
132              1                d3               5.91     50       4000     8        0                        
133              1                L27              0.89     70       400      5        0                        
134              1                L21              2.27     70       1000     5        0                        
135              1                L12              1.19     40       500      5        0                        
136              1                L5               0.95     20       400      5        0                        

[SUBAREAS]
;;Subcatchment   N-Imperv   N-Perv     S-Imperv   S-Perv     PctZero    RouteTo    PctRouted 
;;-------------- ---------- ---------- ---------- ---------- ---------- ---------- ----------
79               0.015      0.1        1.27       30         0          OUTLET    
80               0.015      0.1        1.27       30         0          OUTLET    
81               0.015      0.1        1.27       30         25         OUTLET    
82               0.015      0.1        1.27       30         0          OUTLET    
83               0.015      0.1        1.27       15         25         OUTLET    
84               0.015      0.1        1.27       5          25         OUTLET    
85               0.015      0.1        1.27       30         0          OUTLET    
86               0.015      0.1        1.27       5          0          OUTLET    
87               0.015      0.1        1.27       30         0          OUTLET    
88               0.015      0.1        1.27       40         0          OUTLET    
89               0.015      0.1        1.27       5          25         OUTLET    
90               0.015      0.1        1.27       5          25         OUTLET    
91               0.015      0.1        1.27       5          25         OUTLET    
92               0.015      0.1        1.27       20         0          OUTLET    
93               0.015      0.1        1.27       20         25         OUTLET    
94               0.015      0.1        1.27       15         0          OUTLET    
95               0.015      0.1        1.27       20         0          OUTLET    
96               0.015      0.1        1.27       20         0          OUTLET    
97               0.015      0.1        1.27       5          25         OUTLET    
98               0.015      0.1        1.27       20         0          OUTLET    
99               0.015      0.1        1.27       5          25         OUTLET    
100              0.015      0.1        1.27       5          25         OUTLET    
101              0.015      0.1        1.27       5          25         OUTLET    
102              0.015      0.1        1.27       5          25         OUTLET    
103              0.015      0.1        1.27       5          0          OUTLET    
104              0.015      0.1        1.27       5          25         OUTLET    
105              0.015      0.1        1.27       5          25         OUTLET    
106              0.015      0.1        1.27       20         0          OUTLET    
107              0.015      0.1        1.27       5          25         OUTLET    
108              0.015      0.1        1.27       5          25         OUTLET    
109              0.015      0.1        1.27       5          25         OUTLET    
110              0.015      0.1        1.27       5          25         OUTLET    
111              0.015      0.1        1.27       5          0          OUTLET    
112              0.015      0.1        1.27       5          25         OUTLET    
113              0.015      0.1        1.27       5          25         OUTLET    
114              0.015      0.1        1.27       5          25         OUTLET    
115              0.015      0.1        1.27       5          25         OUTLET    
116              0.015      0.1        1.27       5          25         OUTLET    
117              0.015      0.1        1.27       5          25         OUTLET    
118              0.015      0.1        5          200        0          OUTLET    
119              0.015      0.1        1.27       5          25         OUTLET    
120              0.015      0.1        1.27       29         0          OUTLET    
121              0.015      0.1        1.27       20         0          OUTLET    
122              0.015      0.1        5          200        0          OUTLET    
123              0.015      0.1        1.27       200        0          OUTLET    
124              0.015      0.1        1.27       15         0          OUTLET    
125              0.015      0.1        1.27       5          25         OUTLET    
126              0.015      0.1        1.27       5          25         OUTLET    
127              0.015      0.1        1.27       200        0          IMPERVIOUS 100       
128              0.015      0.1        1.27       25         0          OUTLET    
129              0.015      0.1        1.27       25         0          OUTLET    
130              0.015      0.1        1.27       25         0          OUTLET    
131              0.015      0.1        1.27       5          25         OUTLET    
132              0.015      0.1        1.27       5          25         OUTLET    
133              0.015      0.1        1.27       5          25         OUTLET    
134              0.015      0.1        1.27       5          25         OUTLET    
135              0.015      0.1        1.27       5          0          OUTLET    
136              0.015      0.1        1.27       5          0          OUTLET    

[INFILTRATION]
;;Subcatchment   MaxRate    MinRate    Decay      DryTime    MaxInfil  
;;-------------- ---------- ---------- ---------- ---------- ----------
79               50         1.5        4          0          0         
80               50         1.5        4          0          0         
81               50         1.5        4          0          0         
82               50         1.5        4          0          0         
83               50         1.5        4          0          0         
84               50         1.5        4          0          0         
85               50         1.5        4          0          0         
86               50         1.5        4          0          0         
87               50         1.5        4          0          0         
88               50         1.5        4          0          0         
89               50         1.5        4          0          0         
90               50         1.5        4          0          0         
91               50         1.5        4          0          0         
92               50         1.5        4          0          0         
93               50         1.5        4          0          0         
94               50         1.5        4          0          0         
95               50         1.5        4          0          0         
96               50         1.5        4          0          0         
97               50         1.5        4          0          0         
98               50         1.5        4          0          0         
99               50         1.5        4          0          0         
100              50         1.5        4          0          0         
101              50         1.5        4          0          0         
102              50         1.5        4          0          0         
103              50         1.5        4          0          0         
104              50         1.5        4          0          0         
105              50         1.5        4          0          0         
106              50         1.5        4          0          0         
107              50         1.5        4          0          0         
108              50         1.5        4          0          0         
109              50         1.5        4          0          0         
110              50         1.5        4          0          0         
111              50         1.5        4          0          0         
112              50         1.5        4          0          0         
113              50         1.5        4          0          0         
114              50         1.5        4          0          0         
115              50         1.5        4          0          0         
116              50         1.5        4          0          0         
117              50         1.5        4          0          0         
118              50         1.5        4          0          0         
119              50         1.5        4          0          0         
120              50         1.5        4          0          0         
121              50         1.5        4          0          0         
122              50         1.5        4          0          0         
123              50         1.5        4          0          0         
124              50         1.5        4          0          0         
125              50         1.5        4          0          0         
126              50         1.5        4          0          0         
127              50         1.5        4          0          0         
128              50         1.5        4          0          0         
129              50         1.5        4          0          0         
130              50         1.5        4          0          0         
131              50         1.5        4          0          0         
132              50         1.5        4          0          0         
133              50         1.5        4          0          0         
134              50         1.5        4          0          0         
135              50         1.5        4          0          0         
136              50         1.5        4          0          0         

[JUNCTIONS]
;;Name           Elevation  MaxDepth   InitDepth  SurDepth   Aponded   
;;-------------- ---------- ---------- ---------- ---------- ----------
b1               7.23       2          0          0          0         
b10              6.33       2.83       0          0          0         
b11              6.25       2.85       0          0          0         
b12              6.17       3.2        0          0          0         
b13              6.08       2.83       0          0          0         
b14              5.99       2.95       0          0          0         
b15              5.91       3.14       0          0          0         
b16              5.73       3.51       0          0          0         
b17              5.68       3.84       0          0          0         
b18              5.6        3.76       0          0          0         
b19              5.52       3.54       0          0          0         
b2               7.14       2.11       0          0          0         
b20              5.44       3.48       0          0          0         
b21              4.86       3.61       0          0          0         
b22              4.83       3.74       0          0          0         
b23              4.79       3.98       0          0          0         
b24              4.77       4.05       0          0          0         
b25              4.72       4.25       0          0          0         
b26              4.7        4.32       0          0          0         
b27              4.66       4.44       0          0          0         
b28              4.51       4.84       0          0          0         
b29              4.47       4.73       0          0          0         
b3               7.04       2.29       0          0          0         
b30              4.44       4.76       0          0          0         
b31              4.4        4.8        0          0          0         
b4               6.93       2.48       0          0          0         
b5               6.85       2.44       0          0          0         
b6               6.77       2.54       0          0          0         
b7               6.69       2.63       0          0          0         
b8               6.6        2.56       0          0          0         
b9               6.52       2.65       0          0          0         
d0               6.46       2.64       0          0          0         
d1               6.5        2.6        0          0          0         
d10              7.09       2.1        0          0          0         
d11              7.14       2.05       0          0          0         
d12              7.2        2.02       0          0          0         
d13              7.25       2.07       0          0          0         
d14              7.31       2.03       0          0          0         
d15              7.37       1.87       0          0          0         
d16              7.41       1.91       0          0          0         
d17              7.47       2.04       0          0          0         
d18              7.53       2.01       0          0          0         
d19              7.58       1.93       0          0          0         
d2               6.56       2.76       0          0          0         
d20              7.62       2.04       0          0          0         
d21              7.66       2          0          0          0         
d3               6.71       2.72       0          0          0         
d4               6.77       2.96       0          0          0         
d5               6.82       3.16       0          0          0         
d6               6.88       2.95       0          0          0         
d7               6.94       2.79       0          0          0         
d8               6.99       2.74       0          0          0         
d9               7.04       2.3        0          0          0         
h1               4.23       5.95       0          0          0         
h2               4.21       6.16       0          0          0         
h3               4.17       6.1        0          0          0         
L1               8.8        2.5        0          0          0         
L10              7.93       1.59       0          0          0         
L11              7.84       2.11       0          0          0         
L12              7.77       2.31       0          0          0         
L13              7.7        2.4        0          0          0         
L14              7.67       2.33       0          0          0         
L15              7.63       2.37       0          0          0         
L16              7.56       3.74       0          0          0         
L17              7.48       4.32       0          0          0         
L18              7.4        3.95       0          0          0         
L19              7.34       4.01       0          0          0         
L2               8.71       2.96       0          0          0         
L20              7.24       4.56       0          0          0         
L21              7.14       3.76       0          0          0         
L22              7.07       3.38       0          0          0         
L23              7          3.25       0          0          0         
L24              6.9        3.1        0          0          0         
L25              6.81       2.84       0          0          0         
L26              6.72       2.73       0          0          0         
L27              6.62       2.81       0          0          0         
L28              6.56       2.87       0          0          0         
L29              6.46       2.74       0          0          0         
L3               8.65       2.6        0          0          0         
L30              6.31       2.67       0          0          0         
L4               8.49       2.83       0          0          0         
L5               8.39       1.71       0          0          0         
L6               8.29       2.24       0          0          0         
L7               8.11       1.6        0          0          0         
L8               8.04       1.66       0          0          0         
L9               7.98       1.57       0          0          0         
m1               6.29       2.61       0          0          0         
m10              5.79       3.86       0          0          0         
m11              5.74       1.59       0          0          0         
m12              5.69       1.8        0          0          0         
m13              5.54       4.68       0          0          0         
m14              5.49       4.33       0          0          0         
m15              5.44       4.18       0          0          0         
m16              5.39       4.17       0          0          0         
m17              5.34       4.17       0          0          0         
m18              5.29       4.19       0          0          0         
m19              5.24       4.06       0          0          0         
m2               6.23       2.88       0          0          0         
m20              5.18       4.16       0          0          0         
m21              5.12       4.18       0          0          0         
m22              5.06       4.18       0          0          0         
m23              5.01       4.53       0          0          0         
m3               6.17       2.78       0          0          0         
m4               6.11       2.42       0          0          0         
m5               6.05       2.77       0          0          0         
m6               5.99       3.14       0          0          0         
m7               5.94       3.4        0          0          0         
m8               5.89       3.82       0          0          0         
m9               5.84       3.84       0          0          0         
n1               4.37       5.33       0          0          0         
n2               4.34       5.2        0          0          0         
n3               4.3        5.05       0          0          0         
n4               4.26       5.3        0          0          0         
o1               8.86       2.5        0          0          0         
o10              8.13       2.74       0          0          0         
o11              8.09       2.47       0          0          0         
o12              8.04       2.19       0          0          0         
o13              7.99       1.97       0          0          0         
o14              7.95       2          0          0          0         
o15              7.91       2.11       0          0          0         
o16              7.86       2.24       0          0          0         
o17              7.82       2.36       0          0          0         
o18              7.77       2.83       0          0          0         
o19              7.74       2.87       0          0          0         
o2               8.8        2.62       0          0          0         
o20              7.7        3.11       0          0          0         
o21              7.66       3.29       0          0          0         
o22              7.62       2.86       0          0          0         
o23              7.57       1.77       0          0          0         
o24              7.44       1.17       0          0          0         
o25              7.4        1.32       0          0          0         
o26              7.37       1.39       0          0          0         
o27              7.33       1.53       0          0          0         
o28              7.29       1.54       0          0          0         
o29              7.24       1.97       0          0          0         
o3               8.74       2.83       0          0          0         
o30              7.2        1.93       0          0          0         
o31              7.17       1.86       0          0          0         
o32              7.13       1.98       0          0          0         
o33              7.09       2.1        0          0          0         
o34              7.05       2.3        0          0          0         
o35              6.7        2.88       0          0          0         
o36              6.66       3.14       0          0          0         
o37              6.64       2.97       0          0          0         
o38              6.6        2.73       0          0          0         
o39              6.55       2.55       0          0          0         
o4               8.58       2.95       0          0          0         
o40              6.51       3.1        0          0          0         
o41              6.47       2.5        0          0          0         
o42              6.43       2.69       0          0          0         
o43              6.4        2.83       0          0          0         
o44              6.04       3.01       0          0          0         
o45              5.99       3.14       0          0          0         
o46              5.96       3.47       0          0          0         
o47              5.93       3.7        0          0          0         
o48              5.89       4.24       0          0          0         
o49              5.85       4.05       0          0          0         
o5               8.52       2.53       0          0          0         
o50              5.8        3.75       0          0          0         
o51              5.79       3.77       0          0          0         
o52              5.77       3.49       0          0          0         
o53              5.73       3.48       0          0          0         
o54              5.68       3.27       0          0          0         
o55              5.64       3.03       0          0          0         
o56              5.6        3.54       0          0          0         
o57              5.57       4.11       0          0          0         
o58              5.4        4.32       0          0          0         
o59              4.53       4.85       0          0          0         
o6               8.45       2.55       0          0          0         
o7               8.39       2.61       0          0          0         
o8               8.23       2.91       0          0          0         